105
-2143.511745 Frame 1
N 0.5107 2.2277 0.8577
N -1.7720 0.9495 -0.3377
N 2.1398 -0.2388 0.4406
N -0.1396 -1.5134 -0.7642
C -0.3712 3.3078 0.9312
C -2.3953 2.1299 -0.0426
C 1.7367 2.7022 1.2689
C -2.7680 0.0875 -0.8240
C -1.7395 3.2895 0.5504
C 0.3523 4.4859 1.3748
C -3.8204 2.0276 -0.3133
C 1.6559 4.1008 1.6031
C -4.0453 0.7678 -0.8150
C 2.9364 1.9410 1.3123
C -2.5673 -1.2290 -1.2123
C 3.1350 0.6226 0.9312
C -1.3656 -1.9869 -1.1780
C 2.7626 -1.4198 0.1493
C 0.7440 -2.5911 -0.8463
C 2.1102 -2.5759 -0.4562
C 4.4110 -0.0600 0.9304
C -1.2815 -3.3825 -1.5245
C 4.1864 -1.3196 0.4283
C 0.0231 -3.7663 -1.3008
C -4.0917 6.7629 1.2433
H 0.4331 -4.7601 -1.3903
H 4.9225 -2.0828 0.2347
H -0.0552 5.4815 1.4553
H -4.5564 2.7903 -0.1165
H 2.4785 4.7187 1.9351
H -4.9878 0.3375 -1.1246
H 3.8141 2.4732 1.6728
H -3.4450 -1.7617 -1.5719
C 4.5097 -5.4495 0.1301
H 5.3525 0.3692 1.2444
H -2.1032 -3.9992 -1.8615
Zn 0.1841 0.3565 0.0494
C -4.9527 6.7705 -1.2043
C -4.1295 6.1726 -0.0465
C -3.3715 5.0138 -0.2506
H -3.3488 4.5506 -1.2320
C -2.5503 4.4828 0.7827
H -4.6942 7.6443 1.4219
C -2.5265 5.1242 2.0547
H -1.9443 4.6748 2.8533
C -3.3126 6.2557 2.3105
C -3.3271 6.8853 3.7167
H 3.7017 -3.8539 1.3289
C 3.7413 -4.3010 0.3421
C 2.9261 -3.7631 -0.6948
C 5.3537 -6.1052 1.2358
C 2.9194 -4.3854 -1.9779
H 2.3355 -3.9363 -2.7731
C 3.7329 -5.4921 -2.2464
C 3.8341 -6.1357 -3.6398
C 4.5040 -6.0084 -1.1756
H 5.1280 -6.8769 -1.3653
C -4.1832 8.1682 3.7771
C -3.9132 5.8549 4.7194
C -1.8775 7.2473 4.1354
H -5.2404 7.9722 3.5596
H -4.1357 8.5864 4.7883
H -3.8192 8.9415 3.0890
H -4.9388 5.5768 4.4483
H -3.3122 4.9387 4.7660
H -3.9363 6.2885 5.7255
H -1.4390 7.9841 3.4513
H -1.8813 7.6824 5.1410
H -1.2237 6.3671 4.1631
C -5.8101 7.9729 -0.7540
C -3.9786 7.2528 -2.3138
C -5.8996 5.6856 -1.7808
H -5.1951 8.8085 -0.3982
H -6.3907 8.3426 -1.6061
H -6.5259 7.7014 0.0326
H -3.3054 8.0316 -1.9367
H -3.3656 6.4342 -2.7107
H -4.5491 7.6752 -3.1492
H -6.5887 5.3098 -1.0141
H -6.5022 6.1133 -2.5903
H -5.3509 4.8342 -2.2033
C 5.1892 -5.3967 2.5962
C 4.9225 -7.5865 1.4037
C 6.8508 -6.0454 0.8239
H 4.1507 -5.4245 2.9504
H 5.8005 -5.9092 3.3465
H 5.5258 -4.3519 2.5669
H 7.1890 -5.0099 0.6974
H 7.4641 -6.5097 1.6044
H 7.0464 -6.5853 -0.1097
H 3.8689 -7.6631 1.6977
H 5.0638 -8.1693 0.4862
H 5.5265 -8.0601 2.1859
C 2.8996 -5.4593 -4.6640
C 5.2956 -6.0054 -4.1480
C 3.4514 -7.6376 -3.5439
H 5.5906 -4.9532 -4.2406
H 6.0108 -6.5026 -3.4825
H 5.3878 -6.4709 -5.1358
H 2.4237 -7.7662 -3.1835
H 3.5226 -8.0946 -4.5370
H 4.1183 -8.1982 -2.8791
H 3.1516 -4.4021 -4.8168
H 3.0041 -5.9586 -5.6329
H 1.8441 -5.5345 -4.3714
