105
-2274.081371 Frame 1
N 0.5171 2.2105 0.7952
N -1.7400 0.9285 -0.3072
N 2.1121 -0.2141 0.4096
N -0.1395 -1.4895 -0.7114
C -0.3654 3.2945 0.8813
C -2.3672 2.1141 -0.0390
C 1.7362 2.6977 1.2061
C -2.7475 0.0683 -0.7787
C -1.7281 3.2857 0.5275
C 0.3537 4.4741 1.3218
C -3.7911 2.0158 -0.3058
C 1.6561 4.0931 1.5440
C -4.0217 0.7508 -0.7820
C 2.9403 1.9569 1.2640
C -2.5683 -1.2436 -1.1571
C 3.1162 0.6417 0.8974
C -1.3592 -1.9769 -1.1220
C 2.7377 -1.4022 0.1509
C 0.7461 -2.5695 -0.8106
C 2.1045 -2.5666 -0.4385
C 4.3861 -0.0483 0.9251
C -1.2741 -3.3675 -1.4781
C 4.1571 -1.3115 0.4444
C 0.0308 -3.7454 -1.2663
C -4.0881 6.7503 1.2394
H 0.4505 -4.7344 -1.3619
H 4.8841 -2.0883 0.2732
H -0.0626 5.4659 1.4038
H -4.5186 2.7895 -0.1227
H 2.4822 4.7070 1.8742
H -4.9631 0.3134 -1.0844
H 3.8158 2.4905 1.6250
H -3.4458 -1.7805 -1.5086
C 4.4974 -5.4488 0.1381
H 5.3240 0.3834 1.2458
H -2.0992 -3.9810 -1.8116
Cu 0.1875 0.3594 0.0453
C -4.9544 6.7647 -1.2061
C -4.1270 6.1649 -0.0530
C -3.3660 5.0089 -0.2641
H -3.3449 4.5497 -1.2475
C -2.5429 4.4763 0.7651
H -4.6928 7.6292 1.4227
C -2.5184 5.1108 2.0401
H -1.9337 4.6586 2.8355
C -3.3052 6.2411 2.3022
C -3.3151 6.8665 3.7104
H 3.6840 -3.8635 1.3474
C 3.7294 -4.3007 0.3564
C 2.9234 -3.7522 -0.6806
C 5.3327 -6.1171 1.2427
C 2.9237 -4.3612 -1.9697
H 2.3455 -3.9025 -2.7638
C 3.7350 -5.4686 -2.2434
C 3.8405 -6.1013 -3.6415
C 4.4981 -5.9963 -1.1729
H 5.1205 -6.8651 -1.3662
C -4.1727 8.1481 3.7776
C -3.8959 5.8326 4.7126
C -1.8642 7.2294 4.1241
H -5.2308 7.9511 3.5651
H -4.1204 8.5645 4.7894
H -3.8132 8.9232 3.0891
H -4.9220 5.5534 4.4446
H -3.2930 4.9173 4.7546
H -3.9155 6.2635 5.7201
H -1.4303 7.9702 3.4413
H -1.8640 7.6600 5.1318
H -1.2087 6.3503 4.1447
C -5.8130 7.9638 -0.7494
C -3.9853 7.2521 -2.3175
C -5.9008 5.6793 -1.7825
H -5.1988 8.7995 -0.3927
H -6.3971 8.3348 -1.5984
H -6.5255 7.6881 0.0384
H -3.3133 8.0321 -1.9409
H -3.3712 6.4362 -2.7181
H -4.5597 7.6745 -3.1501
H -6.5869 5.3007 -1.0147
H -6.5065 6.1078 -2.5892
H -5.3519 4.8298 -2.2086
C 5.1633 -5.4204 2.6085
C 4.8953 -7.5987 1.3946
C 6.8326 -6.0595 0.8397
H 4.1232 -5.4491 2.9578
H 5.7703 -5.9405 3.3570
H 5.5020 -4.3760 2.5900
H 7.1772 -5.0239 0.7302
H 7.4391 -6.5385 1.6168
H 7.0306 -6.5864 -0.1006
H 3.8384 -7.6741 1.6772
H 5.0449 -8.1749 0.4744
H 5.4898 -8.0801 2.1795
C 2.9187 -5.4086 -4.6667
C 5.3065 -5.9796 -4.1392
C 3.4443 -7.6008 -3.5598
H 5.6115 -4.9291 -4.2207
H 6.0131 -6.4889 -3.4736
H 5.4009 -6.4372 -5.1304
H 2.4118 -7.7228 -3.2104
H 3.5212 -8.0516 -4.5555
H 4.0999 -8.1714 -2.8922
H 3.1800 -4.3519 -4.8079
H 3.0263 -5.8999 -5.6394
H 1.8603 -5.4782 -4.3828
