105
-2299.216134 Frame 1
N 0.5448 2.2091 0.8175
N -1.7499 0.8931 -0.2891
N 2.1240 -0.1804 0.4053
N -0.1634 -1.4868 -0.7282
C -0.3445 3.2732 0.9052
C -2.3652 2.0923 0.0184
C 1.7725 2.7243 1.2229
C -2.7741 0.0629 -0.7526
C -1.7250 3.2475 0.5653
C 0.3455 4.4686 1.3242
C -3.7873 2.0051 -0.2111
C 1.6554 4.1226 1.5426
C -4.0377 0.7521 -0.7103
C 2.9718 1.9807 1.2816
C -2.5949 -1.2645 -1.1747
C 3.1448 0.6445 0.8869
C -1.3888 -1.9983 -1.1468
C 2.7369 -1.3837 0.1106
C 0.7309 -2.5441 -0.8385
C 2.1048 -2.5275 -0.4704
C 4.4028 -0.0560 0.8775
C -1.2623 -3.3861 -1.5064
C 4.1539 -1.3072 0.3740
C 0.0490 -3.7304 -1.2948
C -4.0710 6.7299 1.2375
H 0.4897 -4.7087 -1.3985
H 4.8764 -2.0794 0.1666
H -0.0899 5.4518 1.4020
H -4.5103 2.7728 0.0109
H 2.4581 4.7691 1.8608
H -4.9935 0.3390 -0.9923
Br 4.5229 2.8965 1.9662
Br -4.1477 -2.1791 -1.8569
C 4.4683 -5.4274 0.1372
H 5.3552 0.3499 1.1807
H -2.0607 -4.0283 -1.8437
Cu 0.1887 0.3587 0.0516
C -4.9308 6.7246 -1.2095
C -4.1079 6.1339 -0.0482
C -3.3474 4.9748 -0.2460
H -3.3215 4.5048 -1.2242
C -2.5287 4.4488 0.7919
H -4.6706 7.6142 1.4110
C -2.5029 5.0968 2.0589
H -1.9161 4.6569 2.8594
C -3.2914 6.2278 2.3084
C -3.3059 6.8659 3.7108
H 3.6462 -3.8335 1.3320
C 3.7027 -4.2752 0.3436
C 2.9123 -3.7237 -0.7050
C 5.2866 -6.0977 1.2538
C 2.9231 -4.3353 -1.9917
H 2.3530 -3.8804 -2.7936
C 3.7347 -5.4448 -2.2535
C 3.8545 -6.0805 -3.6487
C 4.4817 -5.9764 -1.1715
H 5.0975 -6.8520 -1.3552
C -4.1650 8.1472 3.7645
C -3.8880 5.8405 4.7212
C -1.8563 7.2340 4.1252
H -5.2218 7.9475 3.5486
H -4.1180 8.5707 4.7736
H -3.8030 8.9177 3.0722
H -4.9138 5.5592 4.4542
H -3.2853 4.9256 4.7723
H -3.9094 6.2807 5.7246
H -1.4200 7.9669 3.4353
H -1.8603 7.6765 5.1276
H -1.2003 6.3557 4.1586
C -5.7868 7.9303 -0.7660
C -3.9575 7.1991 -2.3227
C -5.8785 5.6363 -1.7777
H -5.1708 8.7678 -0.4165
H -6.3682 8.2947 -1.6197
H -6.5019 7.6649 0.0232
H -3.2837 7.9799 -1.9509
H -3.3452 6.3777 -2.7150
H -4.5283 7.6163 -3.1603
H -6.5668 5.2656 -1.0081
H -6.4818 6.0588 -2.5893
H -5.3303 4.7822 -2.1951
C 5.1042 -5.3963 2.6155
C 4.8394 -7.5764 1.4039
C 6.7913 -6.0491 0.8687
H 4.0598 -5.4193 2.9524
H 5.6999 -5.9171 3.3726
H 5.4477 -4.3535 2.5980
H 7.1433 -5.0157 0.7622
H 7.3863 -6.5306 1.6531
H 6.9971 -6.5784 -0.0686
H 3.7788 -7.6455 1.6740
H 4.9967 -8.1553 0.4866
H 5.4217 -8.0594 2.1968
C 2.9574 -5.3785 -4.6893
C 5.3294 -5.9790 -4.1242
C 3.4379 -7.5750 -3.5701
H 5.6503 -4.9329 -4.2002
H 6.0191 -6.4991 -3.4493
H 5.4314 -6.4372 -5.1143
H 2.3971 -7.6827 -3.2414
H 3.5293 -8.0298 -4.5627
H 4.0725 -8.1516 -2.8874
H 3.2327 -4.3249 -4.8261
H 3.0755 -5.8716 -5.6598
H 1.8937 -5.4364 -4.4235
